/*--------------------------------*- C++ -*----------------------------------*\
  =========                 |
  \\      /  F ield         | OpenFOAM: The Open Source CFD Toolbox
   \\    /   O peration     | Website:  https://openfoam.org
    \\  /    A nd           | Version:  12
     \\/     M anipulation  |
\*---------------------------------------------------------------------------*/
FoamFile
{
    format      ascii;
    class       extendedFeatureEdgeMesh;
    location    "constant/extendedFeatureEdgeMesh";
    object      airfoil.extendedFeatureEdgeMesh;
}
// * * * * * * * * * * * * * * * * * * * * * * * * * * * * * * * * * * * * * //

// points

198
(
(0.933871 -0.001493 -0.05)
(0.933871 -0.001493 0.05)
(0.932817 0.001937 -0.05)
(0.930537 -0.00475 -0.05)
(0.927654 0.005516 -0.05)
(0.918813 0.009209 -0.05)
(0.906724 0.01298 -0.05)
(0.89182 0.016795 -0.05)
(0.87453 0.020617 -0.05)
(0.855285 0.024412 -0.05)
(0.834517 0.028144 -0.05)
(0.812656 0.031778 -0.05)
(0.790134 0.035278 -0.05)
(0.767381 0.038611 -0.05)
(0.744828 0.041739 -0.05)
(0.722907 0.044628 -0.05)
(0.701971 0.047251 -0.05)
(0.682031 0.049625 -0.05)
(0.662997 0.051776 -0.05)
(0.644783 0.053731 -0.05)
(0.627299 0.055517 -0.05)
(0.610457 0.057161 -0.05)
(0.594169 0.05869 -0.05)
(0.578346 0.060132 -0.05)
(0.5629 0.061513 -0.05)
(0.547743 0.062861 -0.05)
(0.442373 0.073513 -0.05)
(0.45792 0.071746 -0.05)
(0.426542 0.075244 -0.05)
(0.410413 0.076843 -0.05)
(0.393975 0.078212 -0.05)
(0.377215 0.079254 -0.05)
(0.360121 0.079871 -0.05)
(0.34268 0.079967 -0.05)
(0.32488 0.079445 -0.05)
(0.306709 0.078206 -0.05)
(0.288154 0.076154 -0.05)
(0.269203 0.073192 -0.05)
(0.249843 0.069222 -0.05)
(0.230176 0.064187 -0.05)
(0.210736 0.058187 -0.05)
(0.192163 0.051356 -0.05)
(0.175093 0.04383 -0.05)
(0.160167 0.035745 -0.05)
(0.148023 0.027237 -0.05)
(0.139298 0.018439 -0.05)
(0.134633 0.009489 -0.05)
(0.134652 0.000522 -0.05)
(0.139444 -0.00835 -0.05)
(0.148352 -0.017042 -0.05)
(0.160669 -0.02547 -0.05)
(0.175684 -0.033554 -0.05)
(0.192688 -0.041211 -0.05)
(0.210973 -0.048359 -0.05)
(0.229829 -0.054915 -0.05)
(0.248555 -0.060798 -0.05)
(0.266768 -0.065975 -0.05)
(0.284484 -0.070468 -0.05)
(0.301748 -0.074308 -0.05)
(0.318602 -0.077521 -0.05)
(0.335089 -0.080136 -0.05)
(0.351252 -0.082181 -0.05)
(0.367135 -0.083684 -0.05)
(0.382781 -0.084675 -0.05)
(0.398233 -0.08518 -0.05)
(0.413534 -0.085228 -0.05)
(0.428726 -0.084847 -0.05)
(0.443855 -0.084066 -0.05)
(0.458962 -0.082913 -0.05)
(0.47409 -0.081415 -0.05)
(0.489283 -0.079602 -0.05)
(0.504585 -0.077501 -0.05)
(0.520037 -0.07514 -0.05)
(0.535684 -0.072548 -0.05)
(0.551568 -0.069753 -0.05)
(0.567733 -0.066784 -0.05)
(0.584221 -0.063667 -0.05)
(0.601077 -0.060433 -0.05)
(0.618342 -0.057108 -0.05)
(0.820863 -0.024869 -0.05)
(0.798687 -0.027715 -0.05)
(0.842383 -0.022075 -0.05)
(0.862762 -0.019304 -0.05)
(0.881513 -0.016526 -0.05)
(0.898152 -0.013711 -0.05)
(0.912192 -0.010829 -0.05)
(0.923149 -0.007852 -0.05)
(0.473195 0.070041 -0.05)
(0.77634 -0.030642 -0.05)
(0.488234 0.068456 -0.05)
(0.532786 0.064201 -0.05)
(0.50312 0.066972 -0.05)
(0.636061 -0.053721 -0.05)
(0.754308 -0.033679 -0.05)
(0.517941 0.065563 -0.05)
(0.732963 -0.036846 -0.05)
(0.654276 -0.050301 -0.05)
(0.712331 -0.040119 -0.05)
(0.692368 -0.043471 -0.05)
(0.673031 -0.046875 -0.05)
(0.932817 0.001937 0.05)
(0.930537 -0.00475 0.05)
(0.927654 0.005516 0.05)
(0.918813 0.009209 0.05)
(0.906724 0.01298 0.05)
(0.89182 0.016795 0.05)
(0.87453 0.020617 0.05)
(0.855285 0.024412 0.05)
(0.834517 0.028144 0.05)
(0.812656 0.031778 0.05)
(0.790134 0.035278 0.05)
(0.767381 0.038611 0.05)
(0.744828 0.041739 0.05)
(0.722907 0.044628 0.05)
(0.701971 0.047251 0.05)
(0.682031 0.049625 0.05)
(0.662997 0.051776 0.05)
(0.644783 0.053731 0.05)
(0.627299 0.055517 0.05)
(0.610457 0.057161 0.05)
(0.594169 0.05869 0.05)
(0.578346 0.060132 0.05)
(0.5629 0.061513 0.05)
(0.547743 0.062861 0.05)
(0.45792 0.071746 0.05)
(0.442373 0.073513 0.05)
(0.426542 0.075244 0.05)
(0.410413 0.076843 0.05)
(0.393975 0.078212 0.05)
(0.377215 0.079254 0.05)
(0.360121 0.079871 0.05)
(0.34268 0.079967 0.05)
(0.32488 0.079445 0.05)
(0.306709 0.078206 0.05)
(0.288154 0.076154 0.05)
(0.269203 0.073192 0.05)
(0.249843 0.069222 0.05)
(0.230176 0.064187 0.05)
(0.210736 0.058187 0.05)
(0.192163 0.051356 0.05)
(0.175093 0.04383 0.05)
(0.160167 0.035745 0.05)
(0.148023 0.027237 0.05)
(0.139298 0.018439 0.05)
(0.134633 0.009489 0.05)
(0.134652 0.000522 0.05)
(0.139444 -0.00835 0.05)
(0.148352 -0.017042 0.05)
(0.160669 -0.02547 0.05)
(0.175684 -0.033554 0.05)
(0.192688 -0.041211 0.05)
(0.210973 -0.048359 0.05)
(0.229829 -0.054915 0.05)
(0.248555 -0.060798 0.05)
(0.266768 -0.065975 0.05)
(0.284484 -0.070468 0.05)
(0.301748 -0.074308 0.05)
(0.318602 -0.077521 0.05)
(0.335089 -0.080136 0.05)
(0.351252 -0.082181 0.05)
(0.367135 -0.083684 0.05)
(0.382781 -0.084675 0.05)
(0.398233 -0.08518 0.05)
(0.413534 -0.085228 0.05)
(0.428726 -0.084847 0.05)
(0.443855 -0.084066 0.05)
(0.458962 -0.082913 0.05)
(0.47409 -0.081415 0.05)
(0.489283 -0.079602 0.05)
(0.504585 -0.077501 0.05)
(0.520037 -0.07514 0.05)
(0.535684 -0.072548 0.05)
(0.551568 -0.069753 0.05)
(0.567733 -0.066784 0.05)
(0.584221 -0.063667 0.05)
(0.601077 -0.060433 0.05)
(0.618342 -0.057108 0.05)
(0.798687 -0.027715 0.05)
(0.820863 -0.024869 0.05)
(0.842383 -0.022075 0.05)
(0.862762 -0.019304 0.05)
(0.881513 -0.016526 0.05)
(0.898152 -0.013711 0.05)
(0.912192 -0.010829 0.05)
(0.923149 -0.007852 0.05)
(0.473195 0.070041 0.05)
(0.77634 -0.030642 0.05)
(0.488234 0.068456 0.05)
(0.532786 0.064201 0.05)
(0.50312 0.066972 0.05)
(0.636061 -0.053721 0.05)
(0.754308 -0.033679 0.05)
(0.517941 0.065563 0.05)
(0.732963 -0.036846 0.05)
(0.654276 -0.050301 0.05)
(0.712331 -0.040119 0.05)
(0.692368 -0.043471 0.05)
(0.673031 -0.046875 0.05)
)

// edges

199
(
(2 0)
(0 3)
(4 2)
(5 4)
(6 5)
(7 6)
(8 7)
(9 8)
(10 9)
(11 10)
(12 11)
(13 12)
(14 13)
(15 14)
(16 15)
(17 16)
(18 17)
(19 18)
(20 19)
(21 20)
(22 21)
(23 22)
(24 23)
(25 24)
(26 27)
(28 26)
(29 28)
(30 29)
(31 30)
(32 31)
(33 32)
(34 33)
(35 34)
(36 35)
(37 36)
(38 37)
(39 38)
(40 39)
(41 40)
(42 41)
(43 42)
(44 43)
(45 44)
(46 45)
(47 46)
(48 47)
(49 48)
(50 49)
(51 50)
(52 51)
(53 52)
(54 53)
(55 54)
(56 55)
(57 56)
(58 57)
(59 58)
(60 59)
(61 60)
(62 61)
(63 62)
(64 63)
(65 64)
(66 65)
(67 66)
(68 67)
(69 68)
(70 69)
(71 70)
(72 71)
(73 72)
(74 73)
(75 74)
(76 75)
(77 76)
(78 77)
(79 80)
(81 79)
(82 81)
(83 82)
(84 83)
(85 84)
(86 85)
(3 86)
(27 87)
(80 88)
(87 89)
(90 25)
(89 91)
(92 78)
(88 93)
(94 90)
(91 94)
(93 95)
(96 92)
(95 97)
(97 98)
(99 96)
(98 99)
(1 100)
(101 1)
(100 102)
(102 103)
(103 104)
(104 105)
(105 106)
(106 107)
(107 108)
(108 109)
(109 110)
(110 111)
(111 112)
(112 113)
(113 114)
(114 115)
(115 116)
(116 117)
(117 118)
(118 119)
(119 120)
(120 121)
(121 122)
(122 123)
(124 125)
(125 126)
(126 127)
(127 128)
(128 129)
(129 130)
(130 131)
(131 132)
(132 133)
(133 134)
(134 135)
(135 136)
(136 137)
(137 138)
(138 139)
(139 140)
(140 141)
(141 142)
(142 143)
(143 144)
(144 145)
(145 146)
(146 147)
(147 148)
(148 149)
(149 150)
(150 151)
(151 152)
(152 153)
(153 154)
(154 155)
(155 156)
(156 157)
(157 158)
(158 159)
(159 160)
(160 161)
(161 162)
(162 163)
(163 164)
(164 165)
(165 166)
(166 167)
(167 168)
(168 169)
(169 170)
(170 171)
(171 172)
(172 173)
(173 174)
(174 175)
(175 176)
(177 178)
(178 179)
(179 180)
(180 181)
(181 182)
(182 183)
(183 184)
(184 101)
(185 124)
(186 177)
(187 185)
(123 188)
(189 187)
(176 190)
(191 186)
(188 192)
(192 189)
(193 191)
(190 194)
(195 193)
(196 195)
(194 197)
(197 196)
(1 0)
)

// concaveStart mixedStart nonFeatureStart
2 2 2
// internalStart flatStart openStart multipleStart
199 199 199 199
// normals

312
(
(0 -0 -1)
(0.955888 0.293731 0)
(0.6988 -0.715317 0)
(0 0 -1)
(0.56971 0.821846 0)
(0.385436 0.922734 0)
(0 0 -1)
(0.297785 0.954633 0)
(0.247977 0.968766 0)
(0 0 -1)
(0.215842 0.976428 0)
(0.193468 0.981107 0)
(0 0 -1)
(0.176867 0.984235 0)
(0.163982 0.986463 0)
(0 0 -1)
(0.153561 0.988139 0)
(0.144939 0.989441 0)
(0 0 -1)
(0.13738 0.990518 0)
(0.130662 0.991427 0)
(0 0 -1)
(0.124315 0.992243 0)
(0.118222 0.992987 0)
(0 0 -1)
(0.112294 0.993675 0)
(0.106722 0.994289 0)
(0 0 -1)
(0.101622 0.994823 0)
(0.0971513 0.99527 0)
(0 0 -1)
(0.093462 0.995623 0)
(0.090757 0.995873 0)
(0 0 -1)
(0.0890529 0.996027 0)
(0.0885865 0.996068 0)
(0 0 -1)
(0.112928 0.993603 0)
(0.108695 0.994075 0)
(0 0 -1)
(0.0986544 0.995122 0)
(0.0829952 0.99655 0)
(0 0 -1)
(0.0620521 0.998073 0)
(0.0360709 0.999349 0)
(0 0 -1)
(0.00550423 0.999985 0)
(-0.0293134 0.99957 0)
(0 0 -1)
(-0.0680273 0.997683 0)
(-0.10992 0.99394 0)
(0 0 -1)
(-0.154423 0.988005 0)
(-0.200882 0.979616 0)
(0 0 -1)
(-0.248014 0.968756 0)
(-0.294915 0.955524 0)
(0 0 -1)
(-0.345185 0.938534 0)
(-0.403421 0.915015 0)
(0 0 -1)
(-0.476287 0.87929 0)
(-0.573788 0.819004 0)
(0 0 -1)
(-0.710047 0.704154 0)
(-0.88677 0.462211 0)
(0 0 -1)
(-0.999998 -0.00211876 0)
(-0.879859 -0.475234 0)
(0 0 -1)
(-0.698376 -0.715731 0)
(-0.56471 -0.825289 0)
(0 0 -1)
(-0.474054 -0.880496 0)
(-0.410597 -0.911817 0)
(0 0 -1)
(-0.36409 -0.931364 0)
(-0.328404 -0.944537 0)
(0 0 -1)
(-0.299719 -0.954027 0)
(-0.273417 -0.961896 0)
(0 0 -1)
(-0.24583 -0.969313 0)
(-0.217122 -0.976144 0)
(0 0 -1)
(-0.187265 -0.982309 0)
(-0.156652 -0.987654 0)
(0 0 -1)
(-0.125523 -0.992091 0)
(-0.0942085 -0.995552 0)
(0 0 -1)
(-0.0632123 -0.998 0)
(-0.0326644 -0.999466 0)
(0 0 -1)
(-0.0031373 -0.999995 0)
(0.0250711 -0.999686 0)
(0 0 -1)
(0.051554 -0.99867 0)
(0.0761013 -0.9971 0)
(0 0 -1)
(0.0985396 -0.995133 0)
(0.11849 -0.992955 0)
(0 0 -1)
(0.136026 -0.990705 0)
(0.151043 -0.988527 0)
(0 0 -1)
(0.163427 -0.986555 0)
(0.173301 -0.984869 0)
(0 0 -1)
(0.180646 -0.983548 0)
(0.185756 -0.982596 0)
(0 0 -1)
(0.188424 -0.982088 0)
(0.189111 -0.981956 0)
(0 0 -1)
(0.127293 -0.991865 0)
(0.128752 -0.991677 0)
(0 0 -1)
(0.134734 -0.990882 0)
(0.146552 -0.989203 0)
(0 0 -1)
(0.166811 -0.985989 0)
(0.201078 -0.979575 0)
(0 0 -1)
(0.262193 -0.965015 0)
(0.387131 -0.922025 0)
(0 0 -1)
(0.110931 0.993828 0)
(0 0 -1)
(0.12987 -0.991531 0)
(0 0 -1)
(0.104812 0.994492 0)
(0 0 -1)
(0.0892323 0.996011 0)
(0 0 -1)
(0.0991993 0.995068 0)
(0 0 -1)
(0.187751 -0.982217 0)
(0 0 -1)
(0.136554 -0.990633 0)
(0 0 -1)
(0.0913645 0.995818 0)
(0 0 -1)
(0.0946412 0.995511 0)
(0 0 -1)
(0.146766 -0.989171 0)
(-0 0 -1)
(0.184533 -0.982826 0)
(0 0 -1)
(0.156678 -0.98765 0)
(0 0 -1)
(0.165592 -0.986194 0)
(-0 0 -1)
(0.179698 -0.983722 0)
(0 0 -1)
(0.17337 -0.984857 0)
(0 0 1)
(0.955888 0.293731 0)
(0.6988 -0.715317 0)
(0 0 1)
(0.56971 0.821846 0)
(0.385436 0.922734 0)
(0 0 1)
(0.297785 0.954633 0)
(0.247977 0.968766 0)
(0 0 1)
(0.215842 0.976428 0)
(0.193468 0.981107 0)
(0 0 1)
(0.176867 0.984235 0)
(0.163982 0.986463 0)
(0 0 1)
(0.153561 0.988139 0)
(0.144939 0.989441 0)
(0 0 1)
(0.13738 0.990518 0)
(0.130662 0.991427 0)
(0 0 1)
(0.124315 0.992243 0)
(0.118222 0.992987 0)
(0 0 1)
(0.112294 0.993675 0)
(0.106722 0.994289 0)
(0 0 1)
(0.101622 0.994823 0)
(0.0971513 0.99527 0)
(0 0 1)
(0.093462 0.995623 0)
(0.090757 0.995873 0)
(0 0 1)
(0.0890529 0.996027 0)
(0.0885865 0.996068 0)
(0 0 1)
(0.112928 0.993603 0)
(0.108695 0.994075 0)
(0 0 1)
(0.0986544 0.995122 0)
(0.0829952 0.99655 0)
(0 0 1)
(0.0620521 0.998073 0)
(0.0360709 0.999349 0)
(0 0 1)
(0.00550423 0.999985 0)
(-0.0293134 0.99957 0)
(0 0 1)
(-0.0680273 0.997683 0)
(-0.10992 0.99394 0)
(0 0 1)
(-0.154423 0.988005 0)
(-0.200882 0.979616 0)
(0 0 1)
(-0.248014 0.968756 0)
(-0.294915 0.955524 0)
(0 0 1)
(-0.345185 0.938534 0)
(-0.403421 0.915015 0)
(0 0 1)
(-0.476287 0.87929 0)
(-0.573788 0.819004 0)
(0 0 1)
(-0.710047 0.704154 0)
(-0.88677 0.462211 0)
(0 0 1)
(-0.999998 -0.00211876 -0)
(-0.879859 -0.475234 -0)
(0 0 1)
(-0.698376 -0.715731 -0)
(-0.56471 -0.825289 -0)
(0 0 1)
(-0.474054 -0.880496 -0)
(-0.410597 -0.911817 -0)
(0 0 1)
(-0.36409 -0.931364 -0)
(-0.328404 -0.944537 -0)
(0 0 1)
(-0.299719 -0.954027 -0)
(-0.273417 -0.961896 -0)
(0 0 1)
(-0.24583 -0.969313 -0)
(-0.217122 -0.976144 -0)
(0 0 1)
(-0.187265 -0.982309 -0)
(-0.156652 -0.987654 -0)
(0 0 1)
(-0.125523 -0.992091 -0)
(-0.0942085 -0.995552 -0)
(0 0 1)
(-0.0632123 -0.998 -0)
(-0.0326644 -0.999466 -0)
(-0 0 1)
(-0.0031373 -0.999995 -0)
(0.0250711 -0.999686 0)
(0 0 1)
(0.051554 -0.99867 0)
(0.0761013 -0.9971 0)
(0 0 1)
(0.0985396 -0.995133 0)
(0.11849 -0.992955 0)
(0 0 1)
(0.136026 -0.990705 0)
(0.151043 -0.988527 0)
(0 0 1)
(0.163427 -0.986555 0)
(0.173301 -0.984869 0)
(0 0 1)
(0.180646 -0.983548 0)
(0.185756 -0.982596 0)
(0 0 1)
(0.188424 -0.982088 0)
(0.189111 -0.981956 0)
(0 0 1)
(0.127293 -0.991865 0)
(0.128752 -0.991677 0)
(0 0 1)
(0.134734 -0.990882 0)
(0.146552 -0.989203 0)
(0 0 1)
(0.166811 -0.985989 0)
(0.201078 -0.979575 0)
(0 0 1)
(0.262193 -0.965015 0)
(0.387131 -0.922025 0)
(0 0 1)
(0.110931 0.993828 0)
(0 0 1)
(0.12987 -0.991531 0)
(0 0 1)
(0.104812 0.994492 0)
(0 0 1)
(0.0892323 0.996011 0)
(0 0 1)
(0.0991993 0.995068 0)
(0 0 1)
(0.187751 -0.982217 0)
(0 0 1)
(0.136554 -0.990633 0)
(0 0 1)
(0.0913645 0.995818 0)
(0 0 1)
(0.0946412 0.995511 0)
(0 0 1)
(0.146766 -0.989171 0)
(0 0 1)
(0.184533 -0.982826 0)
(0 0 1)
(0.156678 -0.98765 0)
(0 0 1)
(0.165592 -0.986194 0)
(0 0 1)
(0.179698 -0.983722 0)
(0 0 1)
(0.17337 -0.984857 0)
)

// normal volume types

312
(
0
0
0
0
0
0
0
0
0
0
0
0
0
0
0
0
0
0
0
0
0
0
0
0
0
0
0
0
0
0
0
0
0
0
0
0
0
0
0
0
0
0
0
0
0
0
0
0
0
0
0
0
0
0
0
0
0
0
0
0
0
0
0
0
0
0
0
0
0
0
0
0
0
0
0
0
0
0
0
0
0
0
0
0
0
0
0
0
0
0
0
0
0
0
0
0
0
0
0
0
0
0
0
0
0
0
0
0
0
0
0
0
0
0
0
0
0
0
0
0
0
0
0
0
0
0
0
0
0
0
0
0
0
0
0
0
0
0
0
0
0
0
0
0
0
0
0
0
0
0
0
0
0
0
0
0
0
0
0
0
0
0
0
0
0
0
0
0
0
0
0
0
0
0
0
0
0
0
0
0
0
0
0
0
0
0
0
0
0
0
0
0
0
0
0
0
0
0
0
0
0
0
0
0
0
0
0
0
0
0
0
0
0
0
0
0
0
0
0
0
0
0
0
0
0
0
0
0
0
0
0
0
0
0
0
0
0
0
0
0
0
0
0
0
0
0
0
0
0
0
0
0
0
0
0
0
0
0
0
0
0
0
0
0
0
0
0
0
0
0
0
0
0
0
0
0
0
0
0
0
0
0
0
0
0
0
0
0
0
0
0
0
0
0
0
0
0
0
0
0
0
0
0
0
0
0
0
0
0
0
0
0
)

// normalDirections

199
(
2(1 -1)
2(1 -1)
2(1 -1)
2(1 -1)
2(1 -1)
2(1 -1)
2(1 -1)
2(1 -1)
2(1 -1)
2(1 -1)
2(1 -1)
2(1 -1)
2(1 -1)
2(1 -1)
2(1 -1)
2(1 -1)
2(1 -1)
2(1 -1)
2(1 -1)
2(1 -1)
2(1 -1)
2(1 -1)
2(1 -1)
2(1 -1)
2(1 -1)
2(1 -1)
2(1 -1)
2(1 -1)
2(1 -1)
2(1 -1)
2(1 -1)
2(1 -1)
2(1 -1)
2(1 -1)
2(1 -1)
2(1 -1)
2(1 -1)
2(1 -1)
2(1 -1)
2(1 -1)
2(1 -1)
2(1 -1)
2(1 -1)
2(1 -1)
2(1 -1)
2(1 -1)
2(1 -1)
2(1 -1)
2(1 -1)
2(1 -1)
2(1 -1)
2(1 -1)
2(1 -1)
2(1 -1)
2(1 -1)
2(1 -1)
2(1 -1)
2(1 -1)
2(1 -1)
2(1 -1)
2(1 -1)
2(1 -1)
2(1 -1)
2(1 -1)
2(1 -1)
2(1 -1)
2(1 -1)
2(1 -1)
2(1 -1)
2(1 -1)
2(1 -1)
2(1 -1)
2(1 -1)
2(1 -1)
2(1 -1)
2(1 -1)
2(1 -1)
2(1 -1)
2(1 -1)
2(1 -1)
2(1 -1)
2(1 -1)
2(1 -1)
2(1 -1)
2(1 -1)
2(1 -1)
2(1 -1)
2(1 -1)
2(1 -1)
2(1 -1)
2(1 -1)
2(1 -1)
2(1 -1)
2(1 -1)
2(1 -1)
2(1 -1)
2(1 -1)
2(1 -1)
2(1 -1)
2(1 -1)
2(1 -1)
2(1 -1)
2(1 -1)
2(1 -1)
2(1 -1)
2(1 -1)
2(1 -1)
2(1 -1)
2(1 -1)
2(1 -1)
2(1 -1)
2(1 -1)
2(1 -1)
2(1 -1)
2(1 -1)
2(1 -1)
2(1 -1)
2(1 -1)
2(1 -1)
2(1 -1)
2(1 -1)
2(1 -1)
2(1 -1)
2(1 -1)
2(1 -1)
2(1 -1)
2(1 -1)
2(1 -1)
2(1 -1)
2(1 -1)
2(1 -1)
2(1 -1)
2(1 -1)
2(1 -1)
2(1 -1)
2(1 -1)
2(1 -1)
2(1 -1)
2(1 -1)
2(1 -1)
2(1 -1)
2(1 -1)
2(1 -1)
2(1 -1)
2(1 -1)
2(1 -1)
2(1 -1)
2(1 -1)
2(1 -1)
2(1 -1)
2(1 -1)
2(1 -1)
2(1 -1)
2(1 -1)
2(1 -1)
2(1 -1)
2(1 -1)
2(1 -1)
2(1 -1)
2(1 -1)
2(1 -1)
2(1 -1)
2(1 -1)
2(1 -1)
2(1 -1)
2(1 -1)
2(1 -1)
2(1 -1)
2(1 -1)
2(1 -1)
2(1 -1)
2(1 -1)
2(1 -1)
2(1 -1)
2(1 -1)
2(1 -1)
2(1 -1)
2(1 -1)
2(1 -1)
2(1 -1)
2(1 -1)
2(1 -1)
2(1 -1)
2(1 -1)
2(1 -1)
2(1 -1)
2(1 -1)
2(1 -1)
2(1 -1)
2(1 -1)
2(1 -1)
2(1 -1)
2(1 -1)
2(1 -1)
2(1 -1)
2(1 -1)
2(1 -1)
2(1 -1)
2(1 -1)
)

// edgeNormals

199
(
2(0 1)
2(0 2)
2(3 4)
2(3 5)
2(6 7)
2(6 8)
2(9 10)
2(9 11)
2(12 13)
2(12 14)
2(15 16)
2(15 17)
2(18 19)
2(18 20)
2(21 22)
2(21 23)
2(24 25)
2(24 26)
2(27 28)
2(27 29)
2(30 31)
2(30 32)
2(33 34)
2(33 35)
2(36 37)
2(36 38)
2(39 40)
2(39 41)
2(42 43)
2(42 44)
2(45 46)
2(45 47)
2(48 49)
2(48 50)
2(51 52)
2(51 53)
2(54 55)
2(54 56)
2(57 58)
2(57 59)
2(60 61)
2(60 62)
2(63 64)
2(63 65)
2(66 67)
2(66 68)
2(69 70)
2(69 71)
2(72 73)
2(72 74)
2(75 76)
2(75 77)
2(78 79)
2(78 80)
2(81 82)
2(81 83)
2(84 85)
2(84 86)
2(87 88)
2(87 89)
2(90 91)
2(90 92)
2(93 94)
2(93 95)
2(96 97)
2(96 98)
2(99 100)
2(99 101)
2(102 103)
2(102 104)
2(105 106)
2(105 107)
2(108 109)
2(108 110)
2(111 112)
2(111 113)
2(114 115)
2(114 116)
2(117 118)
2(117 119)
2(120 121)
2(120 122)
2(123 124)
2(123 125)
2(126 127)
2(128 129)
2(130 131)
2(132 133)
2(134 135)
2(136 137)
2(138 139)
2(140 141)
2(142 143)
2(144 145)
2(146 147)
2(148 149)
2(150 151)
2(152 153)
2(154 155)
2(156 157)
2(156 158)
2(159 160)
2(159 161)
2(162 163)
2(162 164)
2(165 166)
2(165 167)
2(168 169)
2(168 170)
2(171 172)
2(171 173)
2(174 175)
2(174 176)
2(177 178)
2(177 179)
2(180 181)
2(180 182)
2(183 184)
2(183 185)
2(186 187)
2(186 188)
2(189 190)
2(189 191)
2(192 193)
2(192 194)
2(195 196)
2(195 197)
2(198 199)
2(198 200)
2(201 202)
2(201 203)
2(204 205)
2(204 206)
2(207 208)
2(207 209)
2(210 211)
2(210 212)
2(213 214)
2(213 215)
2(216 217)
2(216 218)
2(219 220)
2(219 221)
2(222 223)
2(222 224)
2(225 226)
2(225 227)
2(228 229)
2(228 230)
2(231 232)
2(231 233)
2(234 235)
2(234 236)
2(237 238)
2(237 239)
2(240 241)
2(240 242)
2(243 244)
2(243 245)
2(246 247)
2(246 248)
2(249 250)
2(249 251)
2(252 253)
2(252 254)
2(255 256)
2(255 257)
2(258 259)
2(258 260)
2(261 262)
2(261 263)
2(264 265)
2(264 266)
2(267 268)
2(267 269)
2(270 271)
2(270 272)
2(273 274)
2(273 275)
2(276 277)
2(276 278)
2(279 280)
2(279 281)
2(282 283)
2(284 285)
2(286 287)
2(288 289)
2(290 291)
2(292 293)
2(294 295)
2(296 297)
2(298 299)
2(300 301)
2(302 303)
2(304 305)
2(306 307)
2(308 309)
2(310 311)
2(1 158)
)

// featurePointNormals

2
(
3(0 1 2)
3(156 157 158)
)

// featurePointEdges

2
(
3(0 198 1)
3(99 198 100)
)

// regionEdges
0()


// ************************************************************************* //
