/*--------------------------------*- C++ -*----------------------------------*\
  =========                 |
  \\      /  F ield         | OpenFOAM: The Open Source CFD Toolbox
   \\    /   O peration     | Website:  https://openfoam.org
    \\  /    A nd           | Version:  12
     \\/     M anipulation  |
\*---------------------------------------------------------------------------*/
FoamFile
{
    format      ascii;
    class       featureEdgeMesh;
    location    "constant/triSurface";
    object      airfoil.eMesh;
}
// * * * * * * * * * * * * * * * * * * * * * * * * * * * * * * * * * * * * * //


// points:

198
(
(0.933871 -0.001493 -0.05)
(0.933871 -0.001493 0.05)
(0.932817 0.001937 -0.05)
(0.930537 -0.00475 -0.05)
(0.927654 0.005516 -0.05)
(0.918813 0.009209 -0.05)
(0.906724 0.01298 -0.05)
(0.89182 0.016795 -0.05)
(0.87453 0.020617 -0.05)
(0.855285 0.024412 -0.05)
(0.834517 0.028144 -0.05)
(0.812656 0.031778 -0.05)
(0.790134 0.035278 -0.05)
(0.767381 0.038611 -0.05)
(0.744828 0.041739 -0.05)
(0.722907 0.044628 -0.05)
(0.701971 0.047251 -0.05)
(0.682031 0.049625 -0.05)
(0.662997 0.051776 -0.05)
(0.644783 0.053731 -0.05)
(0.627299 0.055517 -0.05)
(0.610457 0.057161 -0.05)
(0.594169 0.05869 -0.05)
(0.578346 0.060132 -0.05)
(0.5629 0.061513 -0.05)
(0.547743 0.062861 -0.05)
(0.442373 0.073513 -0.05)
(0.45792 0.071746 -0.05)
(0.426542 0.075244 -0.05)
(0.410413 0.076843 -0.05)
(0.393975 0.078212 -0.05)
(0.377215 0.079254 -0.05)
(0.360121 0.079871 -0.05)
(0.34268 0.079967 -0.05)
(0.32488 0.079445 -0.05)
(0.306709 0.078206 -0.05)
(0.288154 0.076154 -0.05)
(0.269203 0.073192 -0.05)
(0.249843 0.069222 -0.05)
(0.230176 0.064187 -0.05)
(0.210736 0.058187 -0.05)
(0.192163 0.051356 -0.05)
(0.175093 0.04383 -0.05)
(0.160167 0.035745 -0.05)
(0.148023 0.027237 -0.05)
(0.139298 0.018439 -0.05)
(0.134633 0.009489 -0.05)
(0.134652 0.000522 -0.05)
(0.139444 -0.00835 -0.05)
(0.148352 -0.017042 -0.05)
(0.160669 -0.02547 -0.05)
(0.175684 -0.033554 -0.05)
(0.192688 -0.041211 -0.05)
(0.210973 -0.048359 -0.05)
(0.229829 -0.054915 -0.05)
(0.248555 -0.060798 -0.05)
(0.266768 -0.065975 -0.05)
(0.284484 -0.070468 -0.05)
(0.301748 -0.074308 -0.05)
(0.318602 -0.077521 -0.05)
(0.335089 -0.080136 -0.05)
(0.351252 -0.082181 -0.05)
(0.367135 -0.083684 -0.05)
(0.382781 -0.084675 -0.05)
(0.398233 -0.08518 -0.05)
(0.413534 -0.085228 -0.05)
(0.428726 -0.084847 -0.05)
(0.443855 -0.084066 -0.05)
(0.458962 -0.082913 -0.05)
(0.47409 -0.081415 -0.05)
(0.489283 -0.079602 -0.05)
(0.504585 -0.077501 -0.05)
(0.520037 -0.07514 -0.05)
(0.535684 -0.072548 -0.05)
(0.551568 -0.069753 -0.05)
(0.567733 -0.066784 -0.05)
(0.584221 -0.063667 -0.05)
(0.601077 -0.060433 -0.05)
(0.618342 -0.057108 -0.05)
(0.820863 -0.024869 -0.05)
(0.798687 -0.027715 -0.05)
(0.842383 -0.022075 -0.05)
(0.862762 -0.019304 -0.05)
(0.881513 -0.016526 -0.05)
(0.898152 -0.013711 -0.05)
(0.912192 -0.010829 -0.05)
(0.923149 -0.007852 -0.05)
(0.473195 0.070041 -0.05)
(0.77634 -0.030642 -0.05)
(0.488234 0.068456 -0.05)
(0.532786 0.064201 -0.05)
(0.50312 0.066972 -0.05)
(0.636061 -0.053721 -0.05)
(0.754308 -0.033679 -0.05)
(0.517941 0.065563 -0.05)
(0.732963 -0.036846 -0.05)
(0.654276 -0.050301 -0.05)
(0.712331 -0.040119 -0.05)
(0.692368 -0.043471 -0.05)
(0.673031 -0.046875 -0.05)
(0.932817 0.001937 0.05)
(0.930537 -0.00475 0.05)
(0.927654 0.005516 0.05)
(0.918813 0.009209 0.05)
(0.906724 0.01298 0.05)
(0.89182 0.016795 0.05)
(0.87453 0.020617 0.05)
(0.855285 0.024412 0.05)
(0.834517 0.028144 0.05)
(0.812656 0.031778 0.05)
(0.790134 0.035278 0.05)
(0.767381 0.038611 0.05)
(0.744828 0.041739 0.05)
(0.722907 0.044628 0.05)
(0.701971 0.047251 0.05)
(0.682031 0.049625 0.05)
(0.662997 0.051776 0.05)
(0.644783 0.053731 0.05)
(0.627299 0.055517 0.05)
(0.610457 0.057161 0.05)
(0.594169 0.05869 0.05)
(0.578346 0.060132 0.05)
(0.5629 0.061513 0.05)
(0.547743 0.062861 0.05)
(0.45792 0.071746 0.05)
(0.442373 0.073513 0.05)
(0.426542 0.075244 0.05)
(0.410413 0.076843 0.05)
(0.393975 0.078212 0.05)
(0.377215 0.079254 0.05)
(0.360121 0.079871 0.05)
(0.34268 0.079967 0.05)
(0.32488 0.079445 0.05)
(0.306709 0.078206 0.05)
(0.288154 0.076154 0.05)
(0.269203 0.073192 0.05)
(0.249843 0.069222 0.05)
(0.230176 0.064187 0.05)
(0.210736 0.058187 0.05)
(0.192163 0.051356 0.05)
(0.175093 0.04383 0.05)
(0.160167 0.035745 0.05)
(0.148023 0.027237 0.05)
(0.139298 0.018439 0.05)
(0.134633 0.009489 0.05)
(0.134652 0.000522 0.05)
(0.139444 -0.00835 0.05)
(0.148352 -0.017042 0.05)
(0.160669 -0.02547 0.05)
(0.175684 -0.033554 0.05)
(0.192688 -0.041211 0.05)
(0.210973 -0.048359 0.05)
(0.229829 -0.054915 0.05)
(0.248555 -0.060798 0.05)
(0.266768 -0.065975 0.05)
(0.284484 -0.070468 0.05)
(0.301748 -0.074308 0.05)
(0.318602 -0.077521 0.05)
(0.335089 -0.080136 0.05)
(0.351252 -0.082181 0.05)
(0.367135 -0.083684 0.05)
(0.382781 -0.084675 0.05)
(0.398233 -0.08518 0.05)
(0.413534 -0.085228 0.05)
(0.428726 -0.084847 0.05)
(0.443855 -0.084066 0.05)
(0.458962 -0.082913 0.05)
(0.47409 -0.081415 0.05)
(0.489283 -0.079602 0.05)
(0.504585 -0.077501 0.05)
(0.520037 -0.07514 0.05)
(0.535684 -0.072548 0.05)
(0.551568 -0.069753 0.05)
(0.567733 -0.066784 0.05)
(0.584221 -0.063667 0.05)
(0.601077 -0.060433 0.05)
(0.618342 -0.057108 0.05)
(0.798687 -0.027715 0.05)
(0.820863 -0.024869 0.05)
(0.842383 -0.022075 0.05)
(0.862762 -0.019304 0.05)
(0.881513 -0.016526 0.05)
(0.898152 -0.013711 0.05)
(0.912192 -0.010829 0.05)
(0.923149 -0.007852 0.05)
(0.473195 0.070041 0.05)
(0.77634 -0.030642 0.05)
(0.488234 0.068456 0.05)
(0.532786 0.064201 0.05)
(0.50312 0.066972 0.05)
(0.636061 -0.053721 0.05)
(0.754308 -0.033679 0.05)
(0.517941 0.065563 0.05)
(0.732963 -0.036846 0.05)
(0.654276 -0.050301 0.05)
(0.712331 -0.040119 0.05)
(0.692368 -0.043471 0.05)
(0.673031 -0.046875 0.05)
)


// edges:

199
(
(2 0)
(0 3)
(4 2)
(5 4)
(6 5)
(7 6)
(8 7)
(9 8)
(10 9)
(11 10)
(12 11)
(13 12)
(14 13)
(15 14)
(16 15)
(17 16)
(18 17)
(19 18)
(20 19)
(21 20)
(22 21)
(23 22)
(24 23)
(25 24)
(26 27)
(28 26)
(29 28)
(30 29)
(31 30)
(32 31)
(33 32)
(34 33)
(35 34)
(36 35)
(37 36)
(38 37)
(39 38)
(40 39)
(41 40)
(42 41)
(43 42)
(44 43)
(45 44)
(46 45)
(47 46)
(48 47)
(49 48)
(50 49)
(51 50)
(52 51)
(53 52)
(54 53)
(55 54)
(56 55)
(57 56)
(58 57)
(59 58)
(60 59)
(61 60)
(62 61)
(63 62)
(64 63)
(65 64)
(66 65)
(67 66)
(68 67)
(69 68)
(70 69)
(71 70)
(72 71)
(73 72)
(74 73)
(75 74)
(76 75)
(77 76)
(78 77)
(79 80)
(81 79)
(82 81)
(83 82)
(84 83)
(85 84)
(86 85)
(3 86)
(27 87)
(80 88)
(87 89)
(90 25)
(89 91)
(92 78)
(88 93)
(94 90)
(91 94)
(93 95)
(96 92)
(95 97)
(97 98)
(99 96)
(98 99)
(1 100)
(101 1)
(100 102)
(102 103)
(103 104)
(104 105)
(105 106)
(106 107)
(107 108)
(108 109)
(109 110)
(110 111)
(111 112)
(112 113)
(113 114)
(114 115)
(115 116)
(116 117)
(117 118)
(118 119)
(119 120)
(120 121)
(121 122)
(122 123)
(124 125)
(125 126)
(126 127)
(127 128)
(128 129)
(129 130)
(130 131)
(131 132)
(132 133)
(133 134)
(134 135)
(135 136)
(136 137)
(137 138)
(138 139)
(139 140)
(140 141)
(141 142)
(142 143)
(143 144)
(144 145)
(145 146)
(146 147)
(147 148)
(148 149)
(149 150)
(150 151)
(151 152)
(152 153)
(153 154)
(154 155)
(155 156)
(156 157)
(157 158)
(158 159)
(159 160)
(160 161)
(161 162)
(162 163)
(163 164)
(164 165)
(165 166)
(166 167)
(167 168)
(168 169)
(169 170)
(170 171)
(171 172)
(172 173)
(173 174)
(174 175)
(175 176)
(177 178)
(178 179)
(179 180)
(180 181)
(181 182)
(182 183)
(183 184)
(184 101)
(185 124)
(186 177)
(187 185)
(123 188)
(189 187)
(176 190)
(191 186)
(188 192)
(192 189)
(193 191)
(190 194)
(195 193)
(196 195)
(194 197)
(197 196)
(1 0)
)

// * * * * * * * * * * * * * * * * * * * * * * * * * * * * * * * * * * * * * //


// ************************************************************************* //
