/*--------------------------------*- C++ -*----------------------------------*\
  =========                 |
  \\      /  F ield         | OpenFOAM: The Open Source CFD Toolbox
   \\    /   O peration     | Website:  https://openfoam.org
    \\  /    A nd           | Version:  12
     \\/     M anipulation  |
\*---------------------------------------------------------------------------*/
FoamFile
{
    format      ascii;
    class       extendedFeatureEdgeMesh;
    location    "constant/extendedFeatureEdgeMesh";
    object      airfoil.extendedFeatureEdgeMesh;
}
// * * * * * * * * * * * * * * * * * * * * * * * * * * * * * * * * * * * * * //

// points

1000
(
(0.906667 0.011667 -0.05)
(0.906667 0.011667 0.05)
(0.903801 0.014838 -0.05)
(0.825 -0.173333 -0.05)
(0.900943 0.017968 -0.05)
(0.898095 0.021056 -0.05)
(0.895255 0.024103 -0.05)
(0.892424 0.027108 -0.05)
(0.889601 0.030073 -0.05)
(0.886788 0.032996 -0.05)
(0.883983 0.035879 -0.05)
(0.881188 0.038721 -0.05)
(0.878401 0.041523 -0.05)
(0.875623 0.044284 -0.05)
(0.872853 0.047006 -0.05)
(0.870093 0.049687 -0.05)
(0.867342 0.052329 -0.05)
(0.864599 0.054931 -0.05)
(0.861866 0.057494 -0.05)
(0.859141 0.060017 -0.05)
(0.856426 0.062501 -0.05)
(0.853719 0.064947 -0.05)
(0.851021 0.067353 -0.05)
(0.848333 0.069721 -0.05)
(0.845653 0.072051 -0.05)
(0.842982 0.074342 -0.05)
(0.840321 0.076595 -0.05)
(0.837668 0.07881 -0.05)
(0.835025 0.080988 -0.05)
(0.83239 0.083128 -0.05)
(0.829765 0.08523 -0.05)
(0.827149 0.087295 -0.05)
(0.824542 0.089323 -0.05)
(0.821944 0.091315 -0.05)
(0.819355 0.093269 -0.05)
(0.816775 0.095187 -0.05)
(0.814204 0.097068 -0.05)
(0.811643 0.098913 -0.05)
(0.809091 0.100722 -0.05)
(0.806548 0.102495 -0.05)
(0.804014 0.104232 -0.05)
(0.801489 0.105934 -0.05)
(0.798974 0.1076 -0.05)
(0.796468 0.109231 -0.05)
(0.793971 0.110827 -0.05)
(0.791483 0.112387 -0.05)
(0.789005 0.113914 -0.05)
(0.786536 0.115405 -0.05)
(0.784076 0.116862 -0.05)
(0.781626 0.118285 -0.05)
(0.779185 0.119673 -0.05)
(0.776753 0.121028 -0.05)
(0.774331 0.122349 -0.05)
(0.771918 0.123636 -0.05)
(0.769514 0.12489 -0.05)
(0.76712 0.126111 -0.05)
(0.764735 0.127298 -0.05)
(0.76236 0.128453 -0.05)
(0.759994 0.129574 -0.05)
(0.757638 0.130663 -0.05)
(0.755291 0.13172 -0.05)
(0.752953 0.132744 -0.05)
(0.750625 0.133737 -0.05)
(0.748307 0.134697 -0.05)
(0.745998 0.135625 -0.05)
(0.743698 0.136522 -0.05)
(0.741408 0.137388 -0.05)
(0.739128 0.138222 -0.05)
(0.736857 0.139025 -0.05)
(0.734596 0.139797 -0.05)
(0.732344 0.140538 -0.05)
(0.730102 0.141249 -0.05)
(0.727869 0.141929 -0.05)
(0.725647 0.142579 -0.05)
(0.723434 0.143199 -0.05)
(0.72123 0.143789 -0.05)
(0.719036 0.144349 -0.05)
(0.716852 0.144879 -0.05)
(0.714677 0.14538 -0.05)
(0.712513 0.145852 -0.05)
(0.710358 0.146294 -0.05)
(0.708212 0.146708 -0.05)
(0.706077 0.147093 -0.05)
(0.703951 0.147449 -0.05)
(0.701835 0.147776 -0.05)
(0.699729 0.148076 -0.05)
(0.697632 0.148347 -0.05)
(0.695545 0.14859 -0.05)
(0.693468 0.148806 -0.05)
(0.691401 0.148994 -0.05)
(0.689344 0.149154 -0.05)
(0.687297 0.149287 -0.05)
(0.685259 0.149393 -0.05)
(0.683232 0.149472 -0.05)
(0.681214 0.149524 -0.05)
(0.679206 0.14955 -0.05)
(0.677208 0.149549 -0.05)
(0.675221 0.149522 -0.05)
(0.673243 0.149468 -0.05)
(0.671274 0.149389 -0.05)
(0.669316 0.149284 -0.05)
(0.667368 0.149153 -0.05)
(0.66543 0.148997 -0.05)
(0.663502 0.148816 -0.05)
(0.661584 0.148609 -0.05)
(0.659676 0.148377 -0.05)
(0.657778 0.148121 -0.05)
(0.65589 0.14784 -0.05)
(0.654012 0.147534 -0.05)
(0.652145 0.147204 -0.05)
(0.650287 0.14685 -0.05)
(0.648439 0.146472 -0.05)
(0.646602 0.146071 -0.05)
(0.644775 0.145645 -0.05)
(0.642957 0.145196 -0.05)
(0.64115 0.144724 -0.05)
(0.639354 0.144229 -0.05)
(0.637567 0.14371 -0.05)
(0.635791 0.143169 -0.05)
(0.634024 0.142605 -0.05)
(0.632268 0.142019 -0.05)
(0.630523 0.141411 -0.05)
(0.628787 0.14078 -0.05)
(0.627062 0.140127 -0.05)
(0.625347 0.139453 -0.05)
(0.623642 0.138756 -0.05)
(0.621948 0.138039 -0.05)
(0.620264 0.1373 -0.05)
(0.61859 0.13654 -0.05)
(0.616926 0.135759 -0.05)
(0.615273 0.134957 -0.05)
(0.613631 0.134134 -0.05)
(0.611998 0.133291 -0.05)
(0.610376 0.132428 -0.05)
(0.608765 0.131544 -0.05)
(0.607164 0.130641 -0.05)
(0.605573 0.129717 -0.05)
(0.603993 0.128774 -0.05)
(0.602423 0.127812 -0.05)
(0.600864 0.12683 -0.05)
(0.599315 0.125829 -0.05)
(0.597776 0.124809 -0.05)
(0.596248 0.12377 -0.05)
(0.594731 0.122713 -0.05)
(0.593224 0.121637 -0.05)
(0.591728 0.120543 -0.05)
(0.590242 0.11943 -0.05)
(0.588767 0.1183 -0.05)
(0.587302 0.117151 -0.05)
(0.585848 0.115986 -0.05)
(0.584405 0.114802 -0.05)
(0.582972 0.113601 -0.05)
(0.58155 0.112384 -0.05)
(0.580139 0.111149 -0.05)
(0.578738 0.109897 -0.05)
(0.577348 0.108629 -0.05)
(0.575968 0.107344 -0.05)
(0.574599 0.106043 -0.05)
(0.573241 0.104725 -0.05)
(0.571894 0.103392 -0.05)
(0.570557 0.102043 -0.05)
(0.569231 0.100678 -0.05)
(0.567916 0.099297 -0.05)
(0.566612 0.097902 -0.05)
(0.565318 0.096491 -0.05)
(0.564035 0.095065 -0.05)
(0.562763 0.093624 -0.05)
(0.561502 0.092169 -0.05)
(0.560252 0.090699 -0.05)
(0.559012 0.089215 -0.05)
(0.557783 0.087717 -0.05)
(0.556566 0.086204 -0.05)
(0.555359 0.084678 -0.05)
(0.554163 0.083138 -0.05)
(0.552978 0.081585 -0.05)
(0.551803 0.080018 -0.05)
(0.55064 0.078438 -0.05)
(0.549488 0.076845 -0.05)
(0.548347 0.075239 -0.05)
(0.547216 0.073621 -0.05)
(0.546097 0.07199 -0.05)
(0.544988 0.070347 -0.05)
(0.543891 0.068691 -0.05)
(0.542805 0.067024 -0.05)
(0.541729 0.065344 -0.05)
(0.540665 0.063653 -0.05)
(0.539612 0.061951 -0.05)
(0.53857 0.060237 -0.05)
(0.537539 0.058512 -0.05)
(0.536519 0.056776 -0.05)
(0.53551 0.055029 -0.05)
(0.534512 0.053272 -0.05)
(0.533526 0.051504 -0.05)
(0.53255 0.049725 -0.05)
(0.531586 0.047936 -0.05)
(0.530633 0.046138 -0.05)
(0.529691 0.044329 -0.05)
(0.52876 0.042511 -0.05)
(0.527841 0.040684 -0.05)
(0.526932 0.038846 -0.05)
(0.526035 0.037 -0.05)
(0.52515 0.035145 -0.05)
(0.524275 0.033281 -0.05)
(0.523412 0.031408 -0.05)
(0.52256 0.029527 -0.05)
(0.521719 0.027637 -0.05)
(0.52089 0.025739 -0.05)
(0.520072 0.023833 -0.05)
(0.519265 0.02192 -0.05)
(0.51847 0.019998 -0.05)
(0.517686 0.018069 -0.05)
(0.516913 0.016133 -0.05)
(0.516152 0.01419 -0.05)
(0.515402 0.012239 -0.05)
(0.514664 0.010282 -0.05)
(0.513937 0.008318 -0.05)
(0.513222 0.006347 -0.05)
(0.512517 0.00437 -0.05)
(0.511825 0.002387 -0.05)
(0.511144 0.000398 -0.05)
(0.510474 -0.001597 -0.05)
(0.509816 -0.003598 -0.05)
(0.509169 -0.005604 -0.05)
(0.508534 -0.007616 -0.05)
(0.507911 -0.009633 -0.05)
(0.507299 -0.011654 -0.05)
(0.506699 -0.013681 -0.05)
(0.50611 -0.015712 -0.05)
(0.505532 -0.017748 -0.05)
(0.504967 -0.019789 -0.05)
(0.504413 -0.021833 -0.05)
(0.50387 -0.023882 -0.05)
(0.50334 -0.025934 -0.05)
(0.502821 -0.02799 -0.05)
(0.502313 -0.03005 -0.05)
(0.501818 -0.032113 -0.05)
(0.501334 -0.034179 -0.05)
(0.500861 -0.036248 -0.05)
(0.500401 -0.038321 -0.05)
(0.499952 -0.040395 -0.05)
(0.499515 -0.042473 -0.05)
(0.499089 -0.044552 -0.05)
(0.498676 -0.046634 -0.05)
(0.498274 -0.048718 -0.05)
(0.497884 -0.050804 -0.05)
(0.497506 -0.052892 -0.05)
(0.497139 -0.054981 -0.05)
(0.496785 -0.057071 -0.05)
(0.496442 -0.059163 -0.05)
(0.496111 -0.061256 -0.05)
(0.495792 -0.063349 -0.05)
(0.495485 -0.065444 -0.05)
(0.49519 -0.067539 -0.05)
(0.494907 -0.069634 -0.05)
(0.494635 -0.071729 -0.05)
(0.494376 -0.073825 -0.05)
(0.494128 -0.07592 -0.05)
(0.493893 -0.078015 -0.05)
(0.493669 -0.08011 -0.05)
(0.493458 -0.082204 -0.05)
(0.493258 -0.084297 -0.05)
(0.493071 -0.086389 -0.05)
(0.492895 -0.08848 -0.05)
(0.492732 -0.09057 -0.05)
(0.49258 -0.092659 -0.05)
(0.492441 -0.094746 -0.05)
(0.492313 -0.096831 -0.05)
(0.492198 -0.098914 -0.05)
(0.492095 -0.100995 -0.05)
(0.492004 -0.103073 -0.05)
(0.491925 -0.105149 -0.05)
(0.491858 -0.107223 -0.05)
(0.491804 -0.109294 -0.05)
(0.491761 -0.111362 -0.05)
(0.491731 -0.113427 -0.05)
(0.491713 -0.115488 -0.05)
(0.491707 -0.117546 -0.05)
(0.491714 -0.119601 -0.05)
(0.491732 -0.121651 -0.05)
(0.491763 -0.123698 -0.05)
(0.491806 -0.125741 -0.05)
(0.491861 -0.127779 -0.05)
(0.491929 -0.129813 -0.05)
(0.492009 -0.131842 -0.05)
(0.492101 -0.133867 -0.05)
(0.492206 -0.135886 -0.05)
(0.492323 -0.137901 -0.05)
(0.492452 -0.13991 -0.05)
(0.492593 -0.141914 -0.05)
(0.492747 -0.143912 -0.05)
(0.492913 -0.145904 -0.05)
(0.493092 -0.147891 -0.05)
(0.493283 -0.149871 -0.05)
(0.493487 -0.151845 -0.05)
(0.493703 -0.153813 -0.05)
(0.493931 -0.155774 -0.05)
(0.494172 -0.157728 -0.05)
(0.494425 -0.159675 -0.05)
(0.494691 -0.161616 -0.05)
(0.494969 -0.163549 -0.05)
(0.49526 -0.165474 -0.05)
(0.495563 -0.167392 -0.05)
(0.495879 -0.169302 -0.05)
(0.496208 -0.171204 -0.05)
(0.496548 -0.173099 -0.05)
(0.496902 -0.174984 -0.05)
(0.497268 -0.176862 -0.05)
(0.497647 -0.178731 -0.05)
(0.498038 -0.180591 -0.05)
(0.498442 -0.182442 -0.05)
(0.498858 -0.184284 -0.05)
(0.499288 -0.186117 -0.05)
(0.499729 -0.18794 -0.05)
(0.500184 -0.189754 -0.05)
(0.500651 -0.191558 -0.05)
(0.501131 -0.193352 -0.05)
(0.501624 -0.195136 -0.05)
(0.502129 -0.19691 -0.05)
(0.502647 -0.198673 -0.05)
(0.503178 -0.200426 -0.05)
(0.503721 -0.202168 -0.05)
(0.504278 -0.203899 -0.05)
(0.504847 -0.205619 -0.05)
(0.505429 -0.207328 -0.05)
(0.506023 -0.209025 -0.05)
(0.506631 -0.210711 -0.05)
(0.507251 -0.212385 -0.05)
(0.507884 -0.214047 -0.05)
(0.508531 -0.215697 -0.05)
(0.50919 -0.217334 -0.05)
(0.509861 -0.21896 -0.05)
(0.510546 -0.220572 -0.05)
(0.511244 -0.222172 -0.05)
(0.511954 -0.223759 -0.05)
(0.512678 -0.225333 -0.05)
(0.513414 -0.226894 -0.05)
(0.514164 -0.228441 -0.05)
(0.514926 -0.229975 -0.05)
(0.515702 -0.231495 -0.05)
(0.51649 -0.233001 -0.05)
(0.517291 -0.234493 -0.05)
(0.518106 -0.235971 -0.05)
(0.518933 -0.237434 -0.05)
(0.519774 -0.238883 -0.05)
(0.520627 -0.240317 -0.05)
(0.521494 -0.241736 -0.05)
(0.522374 -0.24314 -0.05)
(0.523267 -0.244528 -0.05)
(0.524173 -0.245902 -0.05)
(0.525092 -0.24726 -0.05)
(0.526024 -0.248602 -0.05)
(0.526969 -0.249928 -0.05)
(0.527928 -0.251238 -0.05)
(0.528899 -0.252531 -0.05)
(0.529884 -0.253809 -0.05)
(0.530882 -0.25507 -0.05)
(0.531894 -0.256314 -0.05)
(0.532918 -0.257541 -0.05)
(0.533956 -0.258751 -0.05)
(0.535007 -0.259944 -0.05)
(0.536072 -0.261119 -0.05)
(0.537149 -0.262277 -0.05)
(0.53824 -0.263417 -0.05)
(0.539344 -0.26454 -0.05)
(0.540462 -0.265644 -0.05)
(0.541593 -0.26673 -0.05)
(0.542737 -0.267797 -0.05)
(0.543894 -0.268846 -0.05)
(0.545065 -0.269877 -0.05)
(0.546249 -0.270888 -0.05)
(0.547447 -0.27188 -0.05)
(0.548658 -0.272853 -0.05)
(0.549883 -0.273807 -0.05)
(0.551121 -0.274741 -0.05)
(0.552372 -0.275655 -0.05)
(0.553637 -0.27655 -0.05)
(0.554915 -0.277424 -0.05)
(0.556207 -0.278278 -0.05)
(0.557512 -0.279112 -0.05)
(0.558831 -0.279925 -0.05)
(0.560163 -0.280718 -0.05)
(0.561509 -0.28149 -0.05)
(0.562869 -0.28224 -0.05)
(0.564242 -0.282969 -0.05)
(0.565628 -0.283677 -0.05)
(0.567028 -0.284364 -0.05)
(0.568442 -0.285028 -0.05)
(0.569869 -0.285671 -0.05)
(0.57131 -0.286292 -0.05)
(0.572765 -0.28689 -0.05)
(0.574233 -0.287466 -0.05)
(0.575715 -0.28802 -0.05)
(0.57721 -0.288551 -0.05)
(0.578719 -0.289059 -0.05)
(0.580242 -0.289543 -0.05)
(0.581779 -0.290005 -0.05)
(0.583329 -0.290443 -0.05)
(0.584893 -0.290858 -0.05)
(0.586471 -0.291249 -0.05)
(0.588063 -0.291616 -0.05)
(0.589668 -0.291959 -0.05)
(0.591287 -0.292278 -0.05)
(0.59292 -0.292573 -0.05)
(0.594567 -0.292842 -0.05)
(0.596228 -0.293088 -0.05)
(0.597902 -0.293308 -0.05)
(0.59959 -0.293503 -0.05)
(0.601293 -0.293673 -0.05)
(0.603009 -0.293818 -0.05)
(0.604739 -0.293937 -0.05)
(0.606482 -0.29403 -0.05)
(0.60824 -0.294098 -0.05)
(0.610012 -0.294139 -0.05)
(0.611797 -0.294155 -0.05)
(0.613597 -0.294144 -0.05)
(0.61541 -0.294106 -0.05)
(0.617238 -0.294042 -0.05)
(0.619079 -0.29395 -0.05)
(0.620935 -0.293832 -0.05)
(0.622804 -0.293687 -0.05)
(0.624688 -0.293514 -0.05)
(0.626585 -0.293313 -0.05)
(0.628497 -0.293085 -0.05)
(0.630422 -0.292829 -0.05)
(0.632362 -0.292545 -0.05)
(0.634316 -0.292233 -0.05)
(0.636284 -0.291892 -0.05)
(0.638266 -0.291523 -0.05)
(0.640262 -0.291125 -0.05)
(0.642272 -0.290699 -0.05)
(0.644297 -0.290243 -0.05)
(0.646336 -0.289758 -0.05)
(0.648388 -0.289244 -0.05)
(0.650455 -0.2887 -0.05)
(0.652537 -0.288126 -0.05)
(0.654632 -0.287523 -0.05)
(0.656742 -0.286889 -0.05)
(0.658866 -0.286226 -0.05)
(0.661004 -0.285532 -0.05)
(0.663156 -0.284807 -0.05)
(0.665323 -0.284052 -0.05)
(0.667504 -0.283266 -0.05)
(0.669699 -0.282449 -0.05)
(0.671909 -0.2816 -0.05)
(0.674133 -0.280721 -0.05)
(0.676371 -0.27981 -0.05)
(0.678624 -0.278867 -0.05)
(0.680891 -0.277892 -0.05)
(0.683172 -0.276885 -0.05)
(0.685468 -0.275846 -0.05)
(0.687778 -0.274775 -0.05)
(0.690103 -0.273671 -0.05)
(0.692442 -0.272534 -0.05)
(0.694795 -0.271365 -0.05)
(0.697163 -0.270162 -0.05)
(0.699546 -0.268927 -0.05)
(0.701943 -0.267658 -0.05)
(0.704354 -0.266355 -0.05)
(0.70678 -0.265019 -0.05)
(0.70922 -0.263649 -0.05)
(0.711675 -0.262245 -0.05)
(0.714145 -0.260806 -0.05)
(0.716629 -0.259334 -0.05)
(0.719128 -0.257827 -0.05)
(0.721641 -0.256285 -0.05)
(0.724169 -0.254708 -0.05)
(0.726711 -0.253096 -0.05)
(0.729268 -0.251449 -0.05)
(0.73184 -0.249767 -0.05)
(0.734426 -0.248049 -0.05)
(0.737027 -0.246296 -0.05)
(0.739643 -0.244507 -0.05)
(0.742273 -0.242681 -0.05)
(0.744919 -0.24082 -0.05)
(0.747578 -0.238922 -0.05)
(0.750253 -0.236988 -0.05)
(0.752942 -0.235017 -0.05)
(0.755646 -0.233009 -0.05)
(0.758365 -0.230964 -0.05)
(0.761098 -0.228882 -0.05)
(0.763847 -0.226762 -0.05)
(0.76661 -0.224605 -0.05)
(0.769388 -0.222411 -0.05)
(0.772181 -0.220178 -0.05)
(0.774988 -0.217908 -0.05)
(0.777811 -0.215599 -0.05)
(0.780648 -0.213252 -0.05)
(0.7835 -0.210867 -0.05)
(0.786367 -0.208443 -0.05)
(0.789249 -0.20598 -0.05)
(0.792146 -0.203478 -0.05)
(0.795058 -0.200936 -0.05)
(0.797985 -0.198356 -0.05)
(0.800926 -0.195736 -0.05)
(0.803883 -0.193076 -0.05)
(0.806855 -0.190376 -0.05)
(0.809841 -0.187637 -0.05)
(0.812843 -0.184857 -0.05)
(0.81586 -0.182037 -0.05)
(0.818891 -0.179177 -0.05)
(0.821938 -0.176275 -0.05)
(0.903801 0.014838 0.05)
(0.825 -0.173333 0.05)
(0.900943 0.017968 0.05)
(0.898095 0.021056 0.05)
(0.895255 0.024103 0.05)
(0.892424 0.027108 0.05)
(0.889601 0.030073 0.05)
(0.886788 0.032996 0.05)
(0.883983 0.035879 0.05)
(0.881188 0.038721 0.05)
(0.878401 0.041523 0.05)
(0.875623 0.044284 0.05)
(0.872853 0.047006 0.05)
(0.870093 0.049687 0.05)
(0.867342 0.052329 0.05)
(0.864599 0.054931 0.05)
(0.861866 0.057494 0.05)
(0.859141 0.060017 0.05)
(0.856426 0.062501 0.05)
(0.853719 0.064947 0.05)
(0.851021 0.067353 0.05)
(0.848333 0.069721 0.05)
(0.845653 0.072051 0.05)
(0.842982 0.074342 0.05)
(0.840321 0.076595 0.05)
(0.837668 0.07881 0.05)
(0.835025 0.080988 0.05)
(0.83239 0.083128 0.05)
(0.829765 0.08523 0.05)
(0.827149 0.087295 0.05)
(0.824542 0.089323 0.05)
(0.821944 0.091315 0.05)
(0.819355 0.093269 0.05)
(0.816775 0.095187 0.05)
(0.814204 0.097068 0.05)
(0.811643 0.098913 0.05)
(0.809091 0.100722 0.05)
(0.806548 0.102495 0.05)
(0.804014 0.104232 0.05)
(0.801489 0.105934 0.05)
(0.798974 0.1076 0.05)
(0.796468 0.109231 0.05)
(0.793971 0.110827 0.05)
(0.791483 0.112387 0.05)
(0.789005 0.113914 0.05)
(0.786536 0.115405 0.05)
(0.784076 0.116862 0.05)
(0.781626 0.118285 0.05)
(0.779185 0.119673 0.05)
(0.776753 0.121028 0.05)
(0.774331 0.122349 0.05)
(0.771918 0.123636 0.05)
(0.769514 0.12489 0.05)
(0.76712 0.126111 0.05)
(0.764735 0.127298 0.05)
(0.76236 0.128453 0.05)
(0.759994 0.129574 0.05)
(0.757638 0.130663 0.05)
(0.755291 0.13172 0.05)
(0.752953 0.132744 0.05)
(0.750625 0.133737 0.05)
(0.748307 0.134697 0.05)
(0.745998 0.135625 0.05)
(0.743698 0.136522 0.05)
(0.741408 0.137388 0.05)
(0.739128 0.138222 0.05)
(0.736857 0.139025 0.05)
(0.734596 0.139797 0.05)
(0.732344 0.140538 0.05)
(0.730102 0.141249 0.05)
(0.727869 0.141929 0.05)
(0.725647 0.142579 0.05)
(0.723434 0.143199 0.05)
(0.72123 0.143789 0.05)
(0.719036 0.144349 0.05)
(0.716852 0.144879 0.05)
(0.714677 0.14538 0.05)
(0.712513 0.145852 0.05)
(0.710358 0.146294 0.05)
(0.708212 0.146708 0.05)
(0.706077 0.147093 0.05)
(0.703951 0.147449 0.05)
(0.701835 0.147776 0.05)
(0.699729 0.148076 0.05)
(0.697632 0.148347 0.05)
(0.695545 0.14859 0.05)
(0.693468 0.148806 0.05)
(0.691401 0.148994 0.05)
(0.689344 0.149154 0.05)
(0.687297 0.149287 0.05)
(0.685259 0.149393 0.05)
(0.683232 0.149472 0.05)
(0.681214 0.149524 0.05)
(0.679206 0.14955 0.05)
(0.677208 0.149549 0.05)
(0.675221 0.149522 0.05)
(0.673243 0.149468 0.05)
(0.671274 0.149389 0.05)
(0.669316 0.149284 0.05)
(0.667368 0.149153 0.05)
(0.66543 0.148997 0.05)
(0.663502 0.148816 0.05)
(0.661584 0.148609 0.05)
(0.659676 0.148377 0.05)
(0.657778 0.148121 0.05)
(0.65589 0.14784 0.05)
(0.654012 0.147534 0.05)
(0.652145 0.147204 0.05)
(0.650287 0.14685 0.05)
(0.648439 0.146472 0.05)
(0.646602 0.146071 0.05)
(0.644775 0.145645 0.05)
(0.642957 0.145196 0.05)
(0.64115 0.144724 0.05)
(0.639354 0.144229 0.05)
(0.637567 0.14371 0.05)
(0.635791 0.143169 0.05)
(0.634024 0.142605 0.05)
(0.632268 0.142019 0.05)
(0.630523 0.141411 0.05)
(0.628787 0.14078 0.05)
(0.627062 0.140127 0.05)
(0.625347 0.139453 0.05)
(0.623642 0.138756 0.05)
(0.621948 0.138039 0.05)
(0.620264 0.1373 0.05)
(0.61859 0.13654 0.05)
(0.616926 0.135759 0.05)
(0.615273 0.134957 0.05)
(0.613631 0.134134 0.05)
(0.611998 0.133291 0.05)
(0.610376 0.132428 0.05)
(0.608765 0.131544 0.05)
(0.607164 0.130641 0.05)
(0.605573 0.129717 0.05)
(0.603993 0.128774 0.05)
(0.602423 0.127812 0.05)
(0.600864 0.12683 0.05)
(0.599315 0.125829 0.05)
(0.597776 0.124809 0.05)
(0.596248 0.12377 0.05)
(0.594731 0.122713 0.05)
(0.593224 0.121637 0.05)
(0.591728 0.120543 0.05)
(0.590242 0.11943 0.05)
(0.588767 0.1183 0.05)
(0.587302 0.117151 0.05)
(0.585848 0.115986 0.05)
(0.584405 0.114802 0.05)
(0.582972 0.113601 0.05)
(0.58155 0.112384 0.05)
(0.580139 0.111149 0.05)
(0.578738 0.109897 0.05)
(0.577348 0.108629 0.05)
(0.575968 0.107344 0.05)
(0.574599 0.106043 0.05)
(0.573241 0.104725 0.05)
(0.571894 0.103392 0.05)
(0.570557 0.102043 0.05)
(0.569231 0.100678 0.05)
(0.567916 0.099297 0.05)
(0.566612 0.097902 0.05)
(0.565318 0.096491 0.05)
(0.564035 0.095065 0.05)
(0.562763 0.093624 0.05)
(0.561502 0.092169 0.05)
(0.560252 0.090699 0.05)
(0.559012 0.089215 0.05)
(0.557783 0.087717 0.05)
(0.556566 0.086204 0.05)
(0.555359 0.084678 0.05)
(0.554163 0.083138 0.05)
(0.552978 0.081585 0.05)
(0.551803 0.080018 0.05)
(0.55064 0.078438 0.05)
(0.549488 0.076845 0.05)
(0.548347 0.075239 0.05)
(0.547216 0.073621 0.05)
(0.546097 0.07199 0.05)
(0.544988 0.070347 0.05)
(0.543891 0.068691 0.05)
(0.542805 0.067024 0.05)
(0.541729 0.065344 0.05)
(0.540665 0.063653 0.05)
(0.539612 0.061951 0.05)
(0.53857 0.060237 0.05)
(0.537539 0.058512 0.05)
(0.536519 0.056776 0.05)
(0.53551 0.055029 0.05)
(0.534512 0.053272 0.05)
(0.533526 0.051504 0.05)
(0.53255 0.049725 0.05)
(0.531586 0.047936 0.05)
(0.530633 0.046138 0.05)
(0.529691 0.044329 0.05)
(0.52876 0.042511 0.05)
(0.527841 0.040684 0.05)
(0.526932 0.038846 0.05)
(0.526035 0.037 0.05)
(0.52515 0.035145 0.05)
(0.524275 0.033281 0.05)
(0.523412 0.031408 0.05)
(0.52256 0.029527 0.05)
(0.521719 0.027637 0.05)
(0.52089 0.025739 0.05)
(0.520072 0.023833 0.05)
(0.519265 0.02192 0.05)
(0.51847 0.019998 0.05)
(0.517686 0.018069 0.05)
(0.516913 0.016133 0.05)
(0.516152 0.01419 0.05)
(0.515402 0.012239 0.05)
(0.514664 0.010282 0.05)
(0.513937 0.008318 0.05)
(0.513222 0.006347 0.05)
(0.512517 0.00437 0.05)
(0.511825 0.002387 0.05)
(0.511144 0.000398 0.05)
(0.510474 -0.001597 0.05)
(0.509816 -0.003598 0.05)
(0.509169 -0.005604 0.05)
(0.508534 -0.007616 0.05)
(0.507911 -0.009633 0.05)
(0.507299 -0.011654 0.05)
(0.506699 -0.013681 0.05)
(0.50611 -0.015712 0.05)
(0.505532 -0.017748 0.05)
(0.504967 -0.019789 0.05)
(0.504413 -0.021833 0.05)
(0.50387 -0.023882 0.05)
(0.50334 -0.025934 0.05)
(0.502821 -0.02799 0.05)
(0.502313 -0.03005 0.05)
(0.501818 -0.032113 0.05)
(0.501334 -0.034179 0.05)
(0.500861 -0.036248 0.05)
(0.500401 -0.038321 0.05)
(0.499952 -0.040395 0.05)
(0.499515 -0.042473 0.05)
(0.499089 -0.044552 0.05)
(0.498676 -0.046634 0.05)
(0.498274 -0.048718 0.05)
(0.497884 -0.050804 0.05)
(0.497506 -0.052892 0.05)
(0.497139 -0.054981 0.05)
(0.496785 -0.057071 0.05)
(0.496442 -0.059163 0.05)
(0.496111 -0.061256 0.05)
(0.495792 -0.063349 0.05)
(0.495485 -0.065444 0.05)
(0.49519 -0.067539 0.05)
(0.494907 -0.069634 0.05)
(0.494635 -0.071729 0.05)
(0.494376 -0.073825 0.05)
(0.494128 -0.07592 0.05)
(0.493893 -0.078015 0.05)
(0.493669 -0.08011 0.05)
(0.493458 -0.082204 0.05)
(0.493258 -0.084297 0.05)
(0.493071 -0.086389 0.05)
(0.492895 -0.08848 0.05)
(0.492732 -0.09057 0.05)
(0.49258 -0.092659 0.05)
(0.492441 -0.094746 0.05)
(0.492313 -0.096831 0.05)
(0.492198 -0.098914 0.05)
(0.492095 -0.100995 0.05)
(0.492004 -0.103073 0.05)
(0.491925 -0.105149 0.05)
(0.491858 -0.107223 0.05)
(0.491804 -0.109294 0.05)
(0.491761 -0.111362 0.05)
(0.491731 -0.113427 0.05)
(0.491713 -0.115488 0.05)
(0.491707 -0.117546 0.05)
(0.491714 -0.119601 0.05)
(0.491732 -0.121651 0.05)
(0.491763 -0.123698 0.05)
(0.491806 -0.125741 0.05)
(0.491861 -0.127779 0.05)
(0.491929 -0.129813 0.05)
(0.492009 -0.131842 0.05)
(0.492101 -0.133867 0.05)
(0.492206 -0.135886 0.05)
(0.492323 -0.137901 0.05)
(0.492452 -0.13991 0.05)
(0.492593 -0.141914 0.05)
(0.492747 -0.143912 0.05)
(0.492913 -0.145904 0.05)
(0.493092 -0.147891 0.05)
(0.493283 -0.149871 0.05)
(0.493487 -0.151845 0.05)
(0.493703 -0.153813 0.05)
(0.493931 -0.155774 0.05)
(0.494172 -0.157728 0.05)
(0.494425 -0.159675 0.05)
(0.494691 -0.161616 0.05)
(0.494969 -0.163549 0.05)
(0.49526 -0.165474 0.05)
(0.495563 -0.167392 0.05)
(0.495879 -0.169302 0.05)
(0.496208 -0.171204 0.05)
(0.496548 -0.173099 0.05)
(0.496902 -0.174984 0.05)
(0.497268 -0.176862 0.05)
(0.497647 -0.178731 0.05)
(0.498038 -0.180591 0.05)
(0.498442 -0.182442 0.05)
(0.498858 -0.184284 0.05)
(0.499288 -0.186117 0.05)
(0.499729 -0.18794 0.05)
(0.500184 -0.189754 0.05)
(0.500651 -0.191558 0.05)
(0.501131 -0.193352 0.05)
(0.501624 -0.195136 0.05)
(0.502129 -0.19691 0.05)
(0.502647 -0.198673 0.05)
(0.503178 -0.200426 0.05)
(0.503721 -0.202168 0.05)
(0.504278 -0.203899 0.05)
(0.504847 -0.205619 0.05)
(0.505429 -0.207328 0.05)
(0.506023 -0.209025 0.05)
(0.506631 -0.210711 0.05)
(0.507251 -0.212385 0.05)
(0.507884 -0.214047 0.05)
(0.508531 -0.215697 0.05)
(0.50919 -0.217334 0.05)
(0.509861 -0.21896 0.05)
(0.510546 -0.220572 0.05)
(0.511244 -0.222172 0.05)
(0.511954 -0.223759 0.05)
(0.512678 -0.225333 0.05)
(0.513414 -0.226894 0.05)
(0.514164 -0.228441 0.05)
(0.514926 -0.229975 0.05)
(0.515702 -0.231495 0.05)
(0.51649 -0.233001 0.05)
(0.517291 -0.234493 0.05)
(0.518106 -0.235971 0.05)
(0.518933 -0.237434 0.05)
(0.519774 -0.238883 0.05)
(0.520627 -0.240317 0.05)
(0.521494 -0.241736 0.05)
(0.522374 -0.24314 0.05)
(0.523267 -0.244528 0.05)
(0.524173 -0.245902 0.05)
(0.525092 -0.24726 0.05)
(0.526024 -0.248602 0.05)
(0.526969 -0.249928 0.05)
(0.527928 -0.251238 0.05)
(0.528899 -0.252531 0.05)
(0.529884 -0.253809 0.05)
(0.530882 -0.25507 0.05)
(0.531894 -0.256314 0.05)
(0.532918 -0.257541 0.05)
(0.533956 -0.258751 0.05)
(0.535007 -0.259944 0.05)
(0.536072 -0.261119 0.05)
(0.537149 -0.262277 0.05)
(0.53824 -0.263417 0.05)
(0.539344 -0.26454 0.05)
(0.540462 -0.265644 0.05)
(0.541593 -0.26673 0.05)
(0.542737 -0.267797 0.05)
(0.543894 -0.268846 0.05)
(0.545065 -0.269877 0.05)
(0.546249 -0.270888 0.05)
(0.547447 -0.27188 0.05)
(0.548658 -0.272853 0.05)
(0.549883 -0.273807 0.05)
(0.551121 -0.274741 0.05)
(0.552372 -0.275655 0.05)
(0.553637 -0.27655 0.05)
(0.554915 -0.277424 0.05)
(0.556207 -0.278278 0.05)
(0.557512 -0.279112 0.05)
(0.558831 -0.279925 0.05)
(0.560163 -0.280718 0.05)
(0.561509 -0.28149 0.05)
(0.562869 -0.28224 0.05)
(0.564242 -0.282969 0.05)
(0.565628 -0.283677 0.05)
(0.567028 -0.284364 0.05)
(0.568442 -0.285028 0.05)
(0.569869 -0.285671 0.05)
(0.57131 -0.286292 0.05)
(0.572765 -0.28689 0.05)
(0.574233 -0.287466 0.05)
(0.575715 -0.28802 0.05)
(0.57721 -0.288551 0.05)
(0.578719 -0.289059 0.05)
(0.580242 -0.289543 0.05)
(0.581779 -0.290005 0.05)
(0.583329 -0.290443 0.05)
(0.584893 -0.290858 0.05)
(0.586471 -0.291249 0.05)
(0.588063 -0.291616 0.05)
(0.589668 -0.291959 0.05)
(0.591287 -0.292278 0.05)
(0.59292 -0.292573 0.05)
(0.594567 -0.292842 0.05)
(0.596228 -0.293088 0.05)
(0.597902 -0.293308 0.05)
(0.59959 -0.293503 0.05)
(0.601293 -0.293673 0.05)
(0.603009 -0.293818 0.05)
(0.604739 -0.293937 0.05)
(0.606482 -0.29403 0.05)
(0.60824 -0.294098 0.05)
(0.610012 -0.294139 0.05)
(0.611797 -0.294155 0.05)
(0.613597 -0.294144 0.05)
(0.61541 -0.294106 0.05)
(0.617238 -0.294042 0.05)
(0.619079 -0.29395 0.05)
(0.620935 -0.293832 0.05)
(0.622804 -0.293687 0.05)
(0.624688 -0.293514 0.05)
(0.626585 -0.293313 0.05)
(0.628497 -0.293085 0.05)
(0.630422 -0.292829 0.05)
(0.632362 -0.292545 0.05)
(0.634316 -0.292233 0.05)
(0.636284 -0.291892 0.05)
(0.638266 -0.291523 0.05)
(0.640262 -0.291125 0.05)
(0.642272 -0.290699 0.05)
(0.644297 -0.290243 0.05)
(0.646336 -0.289758 0.05)
(0.648388 -0.289244 0.05)
(0.650455 -0.2887 0.05)
(0.652537 -0.288126 0.05)
(0.654632 -0.287523 0.05)
(0.656742 -0.286889 0.05)
(0.658866 -0.286226 0.05)
(0.661004 -0.285532 0.05)
(0.663156 -0.284807 0.05)
(0.665323 -0.284052 0.05)
(0.667504 -0.283266 0.05)
(0.669699 -0.282449 0.05)
(0.671909 -0.2816 0.05)
(0.674133 -0.280721 0.05)
(0.676371 -0.27981 0.05)
(0.678624 -0.278867 0.05)
(0.680891 -0.277892 0.05)
(0.683172 -0.276885 0.05)
(0.685468 -0.275846 0.05)
(0.687778 -0.274775 0.05)
(0.690103 -0.273671 0.05)
(0.692442 -0.272534 0.05)
(0.694795 -0.271365 0.05)
(0.697163 -0.270162 0.05)
(0.699546 -0.268927 0.05)
(0.701943 -0.267658 0.05)
(0.704354 -0.266355 0.05)
(0.70678 -0.265019 0.05)
(0.70922 -0.263649 0.05)
(0.711675 -0.262245 0.05)
(0.714145 -0.260806 0.05)
(0.716629 -0.259334 0.05)
(0.719128 -0.257827 0.05)
(0.721641 -0.256285 0.05)
(0.724169 -0.254708 0.05)
(0.726711 -0.253096 0.05)
(0.729268 -0.251449 0.05)
(0.73184 -0.249767 0.05)
(0.734426 -0.248049 0.05)
(0.737027 -0.246296 0.05)
(0.739643 -0.244507 0.05)
(0.742273 -0.242681 0.05)
(0.744919 -0.24082 0.05)
(0.747578 -0.238922 0.05)
(0.750253 -0.236988 0.05)
(0.752942 -0.235017 0.05)
(0.755646 -0.233009 0.05)
(0.758365 -0.230964 0.05)
(0.761098 -0.228882 0.05)
(0.763847 -0.226762 0.05)
(0.76661 -0.224605 0.05)
(0.769388 -0.222411 0.05)
(0.772181 -0.220178 0.05)
(0.774988 -0.217908 0.05)
(0.777811 -0.215599 0.05)
(0.780648 -0.213252 0.05)
(0.7835 -0.210867 0.05)
(0.786367 -0.208443 0.05)
(0.789249 -0.20598 0.05)
(0.792146 -0.203478 0.05)
(0.795058 -0.200936 0.05)
(0.797985 -0.198356 0.05)
(0.800926 -0.195736 0.05)
(0.803883 -0.193076 0.05)
(0.806855 -0.190376 0.05)
(0.809841 -0.187637 0.05)
(0.812843 -0.184857 0.05)
(0.81586 -0.182037 0.05)
(0.818891 -0.179177 0.05)
(0.821938 -0.176275 0.05)
)

// edges

1001
(
(2 0)
(0 3)
(4 2)
(5 4)
(6 5)
(7 6)
(8 7)
(9 8)
(10 9)
(11 10)
(12 11)
(13 12)
(14 13)
(15 14)
(16 15)
(17 16)
(18 17)
(19 18)
(20 19)
(21 20)
(22 21)
(23 22)
(24 23)
(25 24)
(26 25)
(27 26)
(28 27)
(29 28)
(30 29)
(31 30)
(32 31)
(33 32)
(34 33)
(35 34)
(36 35)
(37 36)
(38 37)
(39 38)
(40 39)
(41 40)
(42 41)
(43 42)
(44 43)
(45 44)
(46 45)
(47 46)
(48 47)
(49 48)
(50 49)
(51 50)
(52 51)
(53 52)
(54 53)
(55 54)
(56 55)
(57 56)
(58 57)
(59 58)
(60 59)
(61 60)
(62 61)
(63 62)
(64 63)
(65 64)
(66 65)
(67 66)
(68 67)
(69 68)
(70 69)
(71 70)
(72 71)
(73 72)
(74 73)
(75 74)
(76 75)
(77 76)
(78 77)
(79 78)
(80 79)
(81 80)
(82 81)
(83 82)
(84 83)
(85 84)
(86 85)
(87 86)
(88 87)
(89 88)
(90 89)
(91 90)
(92 91)
(93 92)
(94 93)
(95 94)
(96 95)
(97 96)
(98 97)
(99 98)
(100 99)
(101 100)
(102 101)
(103 102)
(104 103)
(105 104)
(106 105)
(107 106)
(108 107)
(109 108)
(110 109)
(111 110)
(112 111)
(113 112)
(114 113)
(115 114)
(116 115)
(117 116)
(118 117)
(119 118)
(120 119)
(121 120)
(122 121)
(123 122)
(124 123)
(125 124)
(126 125)
(127 126)
(128 127)
(129 128)
(130 129)
(131 130)
(132 131)
(133 132)
(134 133)
(135 134)
(136 135)
(137 136)
(138 137)
(139 138)
(140 139)
(141 140)
(142 141)
(143 142)
(144 143)
(145 144)
(146 145)
(147 146)
(148 147)
(149 148)
(150 149)
(151 150)
(152 151)
(153 152)
(154 153)
(155 154)
(156 155)
(157 156)
(158 157)
(159 158)
(160 159)
(161 160)
(162 161)
(163 162)
(164 163)
(165 164)
(166 165)
(167 166)
(168 167)
(169 168)
(170 169)
(171 170)
(172 171)
(173 172)
(174 173)
(175 174)
(176 175)
(177 176)
(178 177)
(179 178)
(180 179)
(181 180)
(182 181)
(183 182)
(184 183)
(185 184)
(186 185)
(187 186)
(188 187)
(189 188)
(190 189)
(191 190)
(192 191)
(193 192)
(194 193)
(195 194)
(196 195)
(197 196)
(198 197)
(199 198)
(200 199)
(201 200)
(202 201)
(203 202)
(204 203)
(205 204)
(206 205)
(207 206)
(208 207)
(209 208)
(210 209)
(211 210)
(212 211)
(213 212)
(214 213)
(215 214)
(216 215)
(217 216)
(218 217)
(219 218)
(220 219)
(221 220)
(222 221)
(223 222)
(224 223)
(225 224)
(226 225)
(227 226)
(228 227)
(229 228)
(230 229)
(231 230)
(232 231)
(233 232)
(234 233)
(235 234)
(236 235)
(237 236)
(238 237)
(239 238)
(240 239)
(241 240)
(242 241)
(243 242)
(244 243)
(245 244)
(246 245)
(247 246)
(248 247)
(249 248)
(250 249)
(251 250)
(252 251)
(253 252)
(254 253)
(255 254)
(256 255)
(257 256)
(258 257)
(259 258)
(260 259)
(261 260)
(262 261)
(263 262)
(264 263)
(265 264)
(266 265)
(267 266)
(268 267)
(269 268)
(270 269)
(271 270)
(272 271)
(273 272)
(274 273)
(275 274)
(276 275)
(277 276)
(278 277)
(279 278)
(280 279)
(281 280)
(282 281)
(283 282)
(284 283)
(285 284)
(286 285)
(287 286)
(288 287)
(289 288)
(290 289)
(291 290)
(292 291)
(293 292)
(294 293)
(295 294)
(296 295)
(297 296)
(298 297)
(299 298)
(300 299)
(301 300)
(302 301)
(303 302)
(304 303)
(305 304)
(306 305)
(307 306)
(308 307)
(309 308)
(310 309)
(311 310)
(312 311)
(313 312)
(314 313)
(315 314)
(316 315)
(317 316)
(318 317)
(319 318)
(320 319)
(321 320)
(322 321)
(323 322)
(324 323)
(325 324)
(326 325)
(327 326)
(328 327)
(329 328)
(330 329)
(331 330)
(332 331)
(333 332)
(334 333)
(335 334)
(336 335)
(337 336)
(338 337)
(339 338)
(340 339)
(341 340)
(342 341)
(343 342)
(344 343)
(345 344)
(346 345)
(347 346)
(348 347)
(349 348)
(350 349)
(351 350)
(352 351)
(353 352)
(354 353)
(355 354)
(356 355)
(357 356)
(358 357)
(359 358)
(360 359)
(361 360)
(362 361)
(363 362)
(364 363)
(365 364)
(366 365)
(367 366)